
     RDKit          3D

 22 22  0  0  0  0  0  0  0  0999 V2000
   -4.3385   -1.9755   -1.4064 C   0  0  0  0  0  0  0  0  0  0  0  0
   -2.8140   -2.0910   -1.3480 C   0  0  0  0  0  0  0  0  0  0  0  0
   -2.2599   -1.8488    0.0708 C   0  0  0  0  0  0  0  0  0  0  0  0
   -1.6481   -0.4519    0.2648 C   0  0  0  0  0  0  0  0  0  0  0  0
   -2.6951    0.6710    0.2476 C   0  0  0  0  0  0  0  0  0  0  0  0
   -2.0676    1.9471    0.5842 N   0  0  0  0  0  0  0  0  0  0  0  0
   -1.6044    2.2460    1.9087 C   0  0  0  0  0  0  0  0  0  0  0  0
   -2.0575    1.6109    2.8995 O   0  0  0  0  0  0  0  0  0  0  0  0
   -0.5067    3.2446    2.1139 C   0  0  0  0  0  0  0  0  0  0  0  0
    0.7473    2.5704    2.1937 O   0  0  0  0  0  0  0  0  0  0  0  0
    1.3398    1.9261    1.1000 C   0  0  0  0  0  0  0  0  0  0  0  0
    0.8785    2.1010   -0.0621 O   0  0  0  0  0  0  0  0  0  0  0  0
    2.5098    1.0451    1.3131 C   0  0  0  0  0  0  0  0  0  0  0  0
    3.3136    1.2351    2.4509 C   0  0  0  0  0  0  0  0  0  0  0  0
    4.4304    0.4273    2.6743 C   0  0  0  0  0  0  0  0  0  0  0  0
    4.7507   -0.5878    1.7737 C   0  0  0  0  0  0  0  0  0  0  0  0
    3.9549   -0.8008    0.6466 C   0  0  0  0  0  0  0  0  0  0  0  0
    2.8316    0.0131    0.4003 C   0  0  0  0  0  0  0  0  0  0  0  0
    1.9877   -0.2240   -0.6977 O   0  0  0  0  0  0  0  0  0  0  0  0
    2.3859   -0.7571   -1.9302 C   0  0  0  0  0  0  0  0  0  0  0  0
    1.3425   -1.2153   -2.8923 C   0  0  0  0  0  0  0  0  0  0  0  0
    3.5993   -0.7635   -2.2755 O   0  0  0  0  0  0  0  0  0  0  0  0
  1  2  1  0
  2  3  1  0
  3  4  1  0
  4  5  1  0
  5  6  1  0
  6  7  1  0
  7  8  2  0
  7  9  1  0
  9 10  1  0
 10 11  1  0
 11 12  2  0
 11 13  1  0
 13 14  2  0
 14 15  1  0
 15 16  2  0
 16 17  1  0
 17 18  2  0
 18 19  1  0
 19 20  1  0
 20 21  1  0
 20 22  2  0
 18 13  1  0
M  END
